this file is created on github repository.
new line.
